         424
 Created by MUSIC code
Zn   7.57911     5.33689     5.33689    1
O    6.45800     6.45800     6.45800    2
O    7.28204     5.63396     3.46149    3
C    6.45800     6.45800     2.87510    4
C    6.45800     6.45800     1.38976    5
C    7.30787     5.60813     0.69488    6
H    7.87618     5.03982     1.15727    7
Zn   20.49511     7.57911     5.33689    8
O    19.37400     6.45800     6.45800    9
O    20.19804     7.28204     3.46149   10
C    19.37400     6.45800     2.87510   11
C    19.37400     6.45800     1.38976   12
C    20.22387     7.30787     0.69488   13
H    20.79218     7.87618     1.15727   14
Zn   18.25289    20.49511     5.33689   15
O    19.37400    19.37400     6.45800   16
O    18.54996    20.19804     3.46149   17
C    19.37400    19.37400     2.87510   18
C    19.37400    19.37400     1.38976   19
C    18.52413    20.22387     0.69488   20
H    17.95582    20.79218     1.15727   21
Zn   5.33689    18.25289     5.33689   22
O    6.45800    19.37400     6.45800   23
O    5.63396    18.54996     3.46149   24
C    6.45800    19.37400     2.87510   25
C    6.45800    19.37400     1.38976   26
C    5.60813    18.52413     0.69488   27
H    5.03982    17.95582     1.15727   28
Zn   7.57911    20.49511    20.49511   29
O    6.45800    19.37400    19.37400   30
O    7.28204    20.19804    22.37051   31
C    6.45800    19.37400    22.95690   32
C    6.45800    19.37400    24.44224   33
C    7.30787    20.22387    25.13712   34
H    7.87618    20.79218    24.67473   35
Zn   5.33689     7.57911    20.49511   36
O    6.45800     6.45800    19.37400   37
O    5.63396     7.28204    22.37051   38
C    6.45800     6.45800    22.95690   39
C    6.45800     6.45800    24.44224   40
C    5.60813     7.30787    25.13712   41
H    5.03982     7.87618    24.67473   42
Zn   18.25289     5.33689    20.49511   43
O    19.37400     6.45800    19.37400   44
O    18.54996     5.63396    22.37051   45
C    19.37400     6.45800    22.95690   46
C    19.37400     6.45800    24.44224   47
C    18.52413     5.60813    25.13712   48
H    17.95582     5.03982    24.67473   49
Zn   20.49511    18.25289    20.49511   50
O    19.37400    19.37400    19.37400   51
O    20.19804    18.54996    22.37051   52
C    19.37400    19.37400    22.95690   53
C    19.37400    19.37400    24.44224   54
C    20.22387    18.52413    25.13712   55
H    20.79218    17.95582    24.67473   56
Zn   5.33689     7.57911     5.33689   57
O    3.46149     7.28204     5.63396   58
C    2.87510     6.45800     6.45800   59
C    1.38976     6.45800     6.45800   60
C    0.69488     7.30787     5.60813   61
H    1.15727     7.87618     5.03982   62
Zn   18.25289     5.33689     5.33689   63
O    18.54996     3.46149     5.63396   64
C    19.37400     2.87510     6.45800   65
C    19.37400     1.38976     6.45800   66
C    18.52413     0.69488     5.60813   67
H    17.95582     1.15727     5.03982   68
Zn   20.49511    18.25289     5.33689   69
O    22.37051    18.54996     5.63396   70
C    22.95690    19.37400     6.45800   71
C    24.44224    19.37400     6.45800   72
C    25.13712    18.52413     5.60813   73
H    24.67473    17.95582     5.03982   74
Zn   7.57911    20.49511     5.33689   75
O    7.28204    22.37051     5.63396   76
C    6.45800    22.95690     6.45800   77
C    6.45800    24.44224     6.45800   78
C    7.30787    25.13712     5.60813   79
H    7.87618    24.67473     5.03982   80
Zn   5.33689    18.25289    20.49511   81
O    3.46149    18.54996    20.19804   82
C    2.87510    19.37400    19.37400   83
C    1.38976    19.37400    19.37400   84
C    0.69488    18.52413    20.22387   85
H    1.15727    17.95582    20.79218   86
Zn   7.57911     5.33689    20.49511   87
O    7.28204     3.46149    20.19804   88
C    6.45800     2.87510    19.37400   89
C    6.45800     1.38976    19.37400   90
C    7.30787     0.69488    20.22387   91
H    7.87618     1.15727    20.79218   92
Zn   20.49511     7.57911    20.49511   93
O    22.37051     7.28204    20.19804   94
C    22.95690     6.45800    19.37400   95
C    24.44224     6.45800    19.37400   96
C    25.13712     7.30787    20.22387   97
H    24.67473     7.87618    20.79218   98
Zn   18.25289    20.49511    20.49511   99
O    18.54996    22.37051    20.19804  100
C    19.37400    22.95690    19.37400  101
C    19.37400    24.44224    19.37400  102
C    18.52413    25.13712    20.22387  103
H    17.95582    24.67473    20.79218  104
Zn   5.33689     5.33689     7.57911  105
O    5.63396     3.46149     7.28204  106
C    6.45800     2.87510     6.45800  107
C    6.45800     1.38976     6.45800  108
C    5.60813     0.69488     7.30787  109
H    5.03982     1.15727     7.87618  110
Zn   5.33689    20.49511    18.25289  111
O    5.63396    22.37051    18.54996  112
C    6.45800    22.95690    19.37400  113
C    6.45800    24.44224    19.37400  114
C    5.60813    25.13712    18.52413  115
H    5.03982    24.67473    17.95582  116
Zn   5.33689     5.33689    18.25289  117
O    3.46149     5.63396    18.54996  118
C    2.87510     6.45800    19.37400  119
C    1.38976     6.45800    19.37400  120
C    0.69488     5.60813    18.52413  121
H    1.15727     5.03982    17.95582  122
Zn   20.49511     5.33689    18.25289  123
O    20.19804     3.46149    18.54996  124
C    19.37400     2.87510    19.37400  125
C    19.37400     1.38976    19.37400  126
C    20.22387     0.69488    18.52413  127
H    20.79218     1.15727    17.95582  128
Zn   20.49511    20.49511    18.25289  129
O    22.37051    20.19804    18.54996  130
C    22.95690    19.37400    19.37400  131
C    24.44224    19.37400    19.37400  132
C    25.13712    20.22387    18.52413  133
H    24.67473    20.79218    17.95582  134
Zn   20.49511    20.49511     7.57911  135
O    20.19804    22.37051     7.28204  136
C    19.37400    22.95690     6.45800  137
C    19.37400    24.44224     6.45800  138
C    20.22387    25.13712     7.30787  139
H    20.79218    24.67473     7.87618  140
Zn   5.33689    20.49511     7.57911  141
O    3.46149    20.19804     7.28204  142
C    2.87510    19.37400     6.45800  143
C    1.38976    19.37400     6.45800  144
C    0.69488    20.22387     7.30787  145
H    1.15727    20.79218     7.87618  146
Zn   20.49511     5.33689     7.57911  147
O    22.37051     5.63396     7.28204  148
C    22.95690     6.45800     6.45800  149
C    24.44224     6.45800     6.45800  150
C    25.13712     5.60813     7.30787  151
H    24.67473     5.03982     7.87618  152
O    18.54996    20.19804    22.37051  153
C    18.52413    20.22387    25.13712  154
H    17.95582    20.79218    24.67473  155
O    5.63396    18.54996    22.37051  156
C    5.60813    18.52413    25.13712  157
H    5.03982    17.95582    24.67473  158
O    7.28204     5.63396    22.37051  159
C    7.30787     5.60813    25.13712  160
H    7.87618     5.03982    24.67473  161
O    20.19804     7.28204    22.37051  162
C    20.22387     7.30787    25.13712  163
H    20.79218     7.87618    24.67473  164
O    18.54996     5.63396     3.46149  165
C    18.52413     5.60813     0.69488  166
H    17.95582     5.03982     1.15727  167
O    20.19804    18.54996     3.46149  168
C    20.22387    18.52413     0.69488  169
H    20.79218    17.95582     1.15727  170
O    7.28204    20.19804     3.46149  171
C    7.30787    20.22387     0.69488  172
H    7.87618    20.79218     1.15727  173
O    5.63396     7.28204     3.46149  174
C    5.60813     7.30787     0.69488  175
H    5.03982     7.87618     1.15727  176
O    22.37051    18.54996    20.19804  177
C    25.13712    18.52413    20.22387  178
H    24.67473    17.95582    20.79218  179
O    7.28204    22.37051    20.19804  180
C    7.30787    25.13712    20.22387  181
H    7.87618    24.67473    20.79218  182
O    3.46149     7.28204    20.19804  183
C    0.69488     7.30787    20.22387  184
H    1.15727     7.87618    20.79218  185
O    18.54996     3.46149    20.19804  186
C    18.52413     0.69488    20.22387  187
H    17.95582     1.15727    20.79218  188
O    22.37051     7.28204     5.63396  189
C    25.13712     7.30787     5.60813  190
H    24.67473     7.87618     5.03982  191
O    18.54996    22.37051     5.63396  192
C    18.52413    25.13712     5.60813  193
H    17.95582    24.67473     5.03982  194
O    3.46149    18.54996     5.63396  195
C    0.69488    18.52413     5.60813  196
H    1.15727    17.95582     5.03982  197
O    7.28204     3.46149     5.63396  198
C    7.30787     0.69488     5.60813  199
H    7.87618     1.15727     5.03982  200
O    20.19804    22.37051    18.54996  201
C    20.22387    25.13712    18.52413  202
H    20.79218    24.67473    17.95582  203
O    20.19804     3.46149     7.28204  204
C    20.22387     0.69488     7.30787  205
H    20.79218     1.15727     7.87618  206
O    22.37051    20.19804     7.28204  207
C    25.13712    20.22387     7.30787  208
H    24.67473    20.79218     7.87618  209
O    5.63396    22.37051     7.28204  210
C    5.60813    25.13712     7.30787  211
H    5.03982    24.67473     7.87618  212
O    3.46149     5.63396     7.28204  213
C    0.69488     5.60813     7.30787  214
H    1.15727     5.03982     7.87618  215
O    5.63396     3.46149    18.54996  216
C    5.60813     0.69488    18.52413  217
H    5.03982     1.15727    17.95582  218
O    22.37051     5.63396    18.54996  219
C    25.13712     5.60813    18.52413  220
H    24.67473     5.03982    17.95582  221
O    3.46149    20.19804    18.54996  222
C    0.69488    20.22387    18.52413  223
H    1.15727    20.79218    17.95582  224
Zn   7.57911    18.25289    18.25289  225
O    7.28204    18.54996    16.37749  226
C    6.45800    19.37400    15.79110  227
C    6.45800    19.37400    14.30576  228
C    7.30787    18.52413    13.61088  229
H    7.87618    17.95582    14.07327  230
O    20.19804    20.19804    16.37749  231
C    19.37400    19.37400    15.79110  232
C    19.37400    19.37400    14.30576  233
C    20.22387    20.22387    13.61088  234
H    20.79218    20.79218    14.07327  235
Zn   18.25289     7.57911    18.25289  236
O    18.54996     7.28204    16.37749  237
C    19.37400     6.45800    15.79110  238
C    19.37400     6.45800    14.30576  239
C    18.52413     7.30787    13.61088  240
H    17.95582     7.87618    14.07327  241
O    5.63396     5.63396    16.37749  242
C    6.45800     6.45800    15.79110  243
C    6.45800     6.45800    14.30576  244
C    5.60813     5.60813    13.61088  245
H    5.03982     5.03982    14.07327  246
Zn   7.57911     7.57911     7.57911  247
O    7.28204     7.28204     9.45451  248
C    6.45800     6.45800    10.04090  249
C    6.45800     6.45800    11.52624  250
C    7.30787     7.30787    12.22112  251
H    7.87618     7.87618    11.75873  252
O    5.63396    20.19804     9.45451  253
C    6.45800    19.37400    10.04090  254
C    6.45800    19.37400    11.52624  255
C    5.60813    20.22387    12.22112  256
H    5.03982    20.79218    11.75873  257
Zn   18.25289    18.25289     7.57911  258
O    18.54996    18.54996     9.45451  259
C    19.37400    19.37400    10.04090  260
C    19.37400    19.37400    11.52624  261
C    18.52413    18.52413    12.22112  262
H    17.95582    17.95582    11.75873  263
O    20.19804     5.63396     9.45451  264
C    19.37400     6.45800    10.04090  265
C    19.37400     6.45800    11.52624  266
C    20.22387     5.60813    12.22112  267
H    20.79218     5.03982    11.75873  268
Zn   18.25289    18.25289    18.25289  269
O    18.54996    16.37749    18.54996  270
C    19.37400    15.79110    19.37400  271
C    19.37400    14.30576    19.37400  272
C    18.52413    13.61088    18.52413  273
H    17.95582    14.07327    17.95582  274
Zn   7.57911     7.57911    18.25289  275
O    7.28204     9.45451    18.54996  276
C    6.45800    10.04090    19.37400  277
C    6.45800    11.52624    19.37400  278
C    7.30787    12.22112    18.52413  279
H    7.87618    11.75873    17.95582  280
Zn   7.57911    18.25289     7.57911  281
O    7.28204    16.37749     7.28204  282
C    6.45800    15.79110     6.45800  283
C    6.45800    14.30576     6.45800  284
C    7.30787    13.61088     7.30787  285
H    7.87618    14.07327     7.87618  286
Zn   18.25289     7.57911     7.57911  287
O    18.54996     9.45451     7.28204  288
C    19.37400    10.04090     6.45800  289
C    19.37400    11.52624     6.45800  290
C    18.52413    12.22112     7.30787  291
H    17.95582    11.75873     7.87618  292
O    5.63396    16.37749    20.19804  293
C    6.45800    15.79110    19.37400  294
C    6.45800    14.30576    19.37400  295
C    5.60813    13.61088    20.22387  296
H    5.03982    14.07327    20.79218  297
O    5.63396     9.45451     5.63396  298
C    6.45800    10.04090     6.45800  299
C    6.45800    11.52624     6.45800  300
C    5.60813    12.22112     5.60813  301
H    5.03982    11.75873     5.03982  302
O    20.19804    16.37749     5.63396  303
C    19.37400    15.79110     6.45800  304
C    19.37400    14.30576     6.45800  305
C    20.22387    13.61088     5.60813  306
H    20.79218    14.07327     5.03982  307
O    20.19804     9.45451    20.19804  308
C    19.37400    10.04090    19.37400  309
C    19.37400    11.52624    19.37400  310
C    20.22387    12.22112    20.22387  311
H    20.79218    11.75873    20.79218  312
O    18.54996     7.28204     9.45451  313
C    18.52413     7.30787    12.22112  314
H    17.95582     7.87618    11.75873  315
O    5.63396     5.63396     9.45451  316
C    5.60813     5.60813    12.22112  317
H    5.03982     5.03982    11.75873  318
O    7.28204    18.54996     9.45451  319
C    7.30787    18.52413    12.22112  320
H    7.87618    17.95582    11.75873  321
O    20.19804    20.19804     9.45451  322
C    20.22387    20.22387    12.22112  323
H    20.79218    20.79218    11.75873  324
O    18.54996    18.54996    16.37749  325
C    18.52413    18.52413    13.61088  326
H    17.95582    17.95582    14.07327  327
O    20.19804     5.63396    16.37749  328
C    20.22387     5.60813    13.61088  329
H    20.79218     5.03982    14.07327  330
O    7.28204     7.28204    16.37749  331
C    7.30787     7.30787    13.61088  332
H    7.87618     7.87618    14.07327  333
O    5.63396    20.19804    16.37749  334
C    5.60813    20.22387    13.61088  335
H    5.03982    20.79218    14.07327  336
O    7.28204     9.45451     7.28204  337
C    7.30787    12.22112     7.30787  338
H    7.87618    11.75873     7.87618  339
O    18.54996    16.37749     7.28204  340
C    18.52413    13.61088     7.30787  341
H    17.95582    14.07327     7.87618  342
O    18.54996     9.45451    18.54996  343
C    18.52413    12.22112    18.52413  344
H    17.95582    11.75873    17.95582  345
O    7.28204    16.37749    18.54996  346
C    7.30787    13.61088    18.52413  347
H    7.87618    14.07327    17.95582  348
O    20.19804     9.45451     5.63396  349
C    20.22387    12.22112     5.60813  350
H    20.79218    11.75873     5.03982  351
O    20.19804    16.37749    20.19804  352
C    20.22387    13.61088    20.22387  353
H    20.79218    14.07327    20.79218  354
O    5.63396     9.45451    20.19804  355
C    5.60813    12.22112    20.22387  356
H    5.03982    11.75873    20.79218  357
O    5.63396    16.37749     5.63396  358
C    5.60813    13.61088     5.60813  359
H    5.03982    14.07327     5.03982  360
O    16.37749     7.28204    18.54996  361
C    15.79110     6.45800    19.37400  362
C    14.30576     6.45800    19.37400  363
C    13.61088     7.30787    18.52413  364
H    14.07327     7.87618    17.95582  365
O    9.45451    18.54996    18.54996  366
C    10.04090    19.37400    19.37400  367
C    11.52624    19.37400    19.37400  368
C    12.22112    18.52413    18.52413  369
H    11.75873    17.95582    17.95582  370
O    16.37749    18.54996     7.28204  371
C    15.79110    19.37400     6.45800  372
C    14.30576    19.37400     6.45800  373
C    13.61088    18.52413     7.30787  374
H    14.07327    17.95582     7.87618  375
O    9.45451     7.28204     7.28204  376
C    10.04090     6.45800     6.45800  377
C    11.52624     6.45800     6.45800  378
C    12.22112     7.30787     7.30787  379
H    11.75873     7.87618     7.87618  380
O    16.37749     5.63396     5.63396  381
C    15.79110     6.45800     6.45800  382
C    14.30576     6.45800     6.45800  383
C    13.61088     5.60813     5.60813  384
H    14.07327     5.03982     5.03982  385
O    9.45451    20.19804     5.63396  386
C    10.04090    19.37400     6.45800  387
C    11.52624    19.37400     6.45800  388
C    12.22112    20.22387     5.60813  389
H    11.75873    20.79218     5.03982  390
O    16.37749    20.19804    20.19804  391
C    15.79110    19.37400    19.37400  392
C    14.30576    19.37400    19.37400  393
C    13.61088    20.22387    20.22387  394
H    14.07327    20.79218    20.79218  395
O    9.45451     5.63396    20.19804  396
C    10.04090     6.45800    19.37400  397
C    11.52624     6.45800    19.37400  398
C    12.22112     5.60813    20.22387  399
H    11.75873     5.03982    20.79218  400
O    9.45451    18.54996     7.28204  401
C    12.22112    18.52413     7.30787  402
H    11.75873    17.95582     7.87618  403
O    16.37749     7.28204     7.28204  404
C    13.61088     7.30787     7.30787  405
H    14.07327     7.87618     7.87618  406
O    9.45451     7.28204    18.54996  407
C    12.22112     7.30787    18.52413  408
H    11.75873     7.87618    17.95582  409
O    16.37749    18.54996    18.54996  410
C    13.61088    18.52413    18.52413  411
H    14.07327    17.95582    17.95582  412
O    9.45451    20.19804    20.19804  413
C    12.22112    20.22387    20.22387  414
H    11.75873    20.79218    20.79218  415
O    16.37749     5.63396    20.19804  416
C    13.61088     5.60813    20.22387  417
H    14.07327     5.03982    20.79218  418
O    9.45451     5.63396     5.63396  419
C    12.22112     5.60813     5.60813  420
H    11.75873     5.03982     5.03982  421
O    16.37749    20.19804     5.63396  422
C    13.61088    20.22387     5.60813  423
H    14.07327    20.79218     5.03982  424
